  
       XFOIL         Version 6.99
  
 Calculated polar for: MH 114  13.02%                                  
  
 1 1 Reynolds number fixed          Mach number fixed         
  
 xtrf =   1.000 (top)        1.000 (bottom)  
 Mach =   0.000     Re =     0.500 e 6     Ncrit =   9.000
  
   alpha    CL        CD       CDp       CM     Top_Xtr  Bot_Xtr
  ------ -------- --------- --------- -------- -------- --------
   0.000   0.8726   0.00842   0.00313  -0.1940   0.6952   0.6169
   0.250   0.8992   0.00841   0.00320  -0.1937   0.6883   0.6563
   0.500   0.9256   0.00841   0.00325  -0.1933   0.6810   0.6956
   0.750   0.9517   0.00842   0.00331  -0.1929   0.6741   0.7358
   1.000   0.9766   0.00841   0.00338  -0.1922   0.6663   0.7775
   1.250   1.0003   0.00842   0.00345  -0.1912   0.6589   0.8245
   1.500   1.0193   0.00834   0.00350  -0.1891   0.6508   0.8860
   1.750   1.0405   0.00828   0.00345  -0.1875   0.6433   1.0000
   2.000   1.0671   0.00839   0.00351  -0.1873   0.6345   1.0000
   2.250   1.0935   0.00854   0.00358  -0.1871   0.6264   1.0000
   2.500   1.1194   0.00867   0.00367  -0.1868   0.6172   1.0000
   2.750   1.1451   0.00882   0.00376  -0.1864   0.6085   1.0000
   3.000   1.1702   0.00898   0.00386  -0.1859   0.5990   1.0000
   3.250   1.1953   0.00913   0.00398  -0.1854   0.5895   1.0000
   3.500   1.2196   0.00934   0.00411  -0.1848   0.5802   1.0000
   3.750   1.2440   0.00950   0.00425  -0.1842   0.5700   1.0000
   4.000   1.2677   0.00970   0.00440  -0.1835   0.5600   1.0000
   4.250   1.2906   0.00992   0.00456  -0.1826   0.5496   1.0000
   4.500   1.3137   0.01012   0.00474  -0.1818   0.5390   1.0000
   4.750   1.3360   0.01035   0.00493  -0.1808   0.5287   1.0000
   5.000   1.3573   0.01061   0.00514  -0.1796   0.5177   1.0000
   5.250   1.3787   0.01084   0.00536  -0.1785   0.5068   1.0000
   5.500   1.3982   0.01111   0.00558  -0.1770   0.4962   1.0000
   5.750   1.4166   0.01141   0.00583  -0.1753   0.4852   1.0000
   6.000   1.4359   0.01167   0.00610  -0.1738   0.4742   1.0000
   6.250   1.4543   0.01199   0.00638  -0.1721   0.4636   1.0000
   6.750   1.4900   0.01268   0.00701  -0.1687   0.4417   1.0000
   7.000   1.5074   0.01305   0.00737  -0.1670   0.4312   1.0000
   7.500   1.5410   0.01386   0.00814  -0.1634   0.4097   1.0000
   7.750   1.5572   0.01431   0.00858  -0.1615   0.3994   1.0000
   8.000   1.5718   0.01483   0.00907  -0.1595   0.3888   1.0000
   8.250   1.5885   0.01528   0.00953  -0.1578   0.3783   1.0000
   8.500   1.6032   0.01583   0.01007  -0.1558   0.3679   1.0000
   8.750   1.6165   0.01646   0.01067  -0.1537   0.3574   1.0000
   9.000   1.6322   0.01700   0.01123  -0.1520   0.3472   1.0000
   9.250   1.6453   0.01768   0.01190  -0.1500   0.3374   1.0000
   9.500   1.6577   0.01841   0.01262  -0.1479   0.3265   1.0000
   9.750   1.6715   0.01910   0.01333  -0.1461   0.3161   1.0000
  10.000   1.6832   0.01993   0.01415  -0.1441   0.3061   1.0000
  10.250   1.6943   0.02081   0.01503  -0.1420   0.2957   1.0000
  10.500   1.7065   0.02167   0.01591  -0.1402   0.2852   1.0000
  10.750   1.7166   0.02268   0.01691  -0.1382   0.2750   1.0000
  11.000   1.7251   0.02382   0.01803  -0.1361   0.2640   1.0000
  11.250   1.7360   0.02485   0.01909  -0.1343   0.2535   1.0000
  11.500   1.7448   0.02605   0.02029  -0.1324   0.2434   1.0000
  11.750   1.7510   0.02747   0.02170  -0.1303   0.2329   1.0000
  12.000   1.7595   0.02878   0.02302  -0.1286   0.2217   1.0000
  12.250   1.7669   0.03021   0.02446  -0.1268   0.2113   1.0000
  12.500   1.7722   0.03185   0.02610  -0.1249   0.2012   1.0000
  12.750   1.7770   0.03359   0.02784  -0.1231   0.1908   1.0000
  13.000   1.7830   0.03529   0.02956  -0.1215   0.1808   1.0000
  13.250   1.7868   0.03723   0.03150  -0.1199   0.1711   1.0000
  13.500   1.7882   0.03945   0.03371  -0.1182   0.1612   1.0000
  13.750   1.7928   0.04145   0.03573  -0.1169   0.1517   1.0000
  14.000   1.7954   0.04370   0.03800  -0.1155   0.1433   1.0000
  14.250   1.7956   0.04626   0.04057  -0.1142   0.1350   1.0000
  14.500   1.7994   0.04852   0.04288  -0.1132   0.1271   1.0000
  14.750   1.7988   0.05132   0.04569  -0.1121   0.1196   1.0000
  15.000   1.7993   0.05406   0.04847  -0.1111   0.1119   1.0000
  15.250   1.7991   0.05698   0.05142  -0.1103   0.1049   1.0000
  15.500   1.7965   0.06026   0.05472  -0.1096   0.0980   1.0000
  15.750   1.7966   0.06329   0.05781  -0.1091   0.0917   1.0000
  16.000   1.7916   0.06704   0.06158  -0.1087   0.0856   1.0000
  16.250   1.7916   0.07023   0.06485  -0.1084   0.0799   1.0000
  16.500   1.7850   0.07438   0.06902  -0.1083   0.0744   1.0000
  16.750   1.7837   0.07790   0.07262  -0.1083   0.0693   1.0000
  17.000   1.7759   0.08240   0.07715  -0.1086   0.0645   1.0000
  17.250   1.7733   0.08623   0.08106  -0.1089   0.0599   1.0000
  17.750   1.7613   0.09512   0.09008  -0.1101   0.0517   1.0000
  18.000   1.7524   0.10010   0.09510  -0.1111   0.0481   1.0000
  18.250   1.7477   0.10448   0.09958  -0.1120   0.0448   1.0000
  18.500   1.7398   0.10942   0.10460  -0.1133   0.0417   1.0000
  18.750   1.7327   0.11430   0.10955  -0.1146   0.0390   1.0000
  19.000   1.7269   0.11899   0.11432  -0.1160   0.0362   1.0000
  19.250   1.7166   0.12445   0.11985  -0.1179   0.0339   1.0000
  19.500   1.7123   0.12892   0.12441  -0.1195   0.0316   1.0000
  19.750   1.7045   0.13403   0.12960  -0.1215   0.0295   1.0000
  20.000   1.6967   0.13918   0.13483  -0.1237   0.0276   1.0000
